data_tio2_rutile
_symmetry_space_group_name_H-M 'P 42/m n m'
_cell_length_a 4.5937
_cell_length_b 4.5937
_cell_length_c 2.9587
_cell_angle_alpha 90
_cell_angle_beta 90
_cell_angle_gamma 90

loop_
  _atom_site_label
  _atom_site_type_symbol
  _atom_site_fract_x
  _atom_site_fract_y
  _atom_site_fract_z
  Ti1 Ti 0.00000 0.00000 0.00000
  Ti2 Ti 0.50000 0.50000 0.50000
  O1  O  0.30500 0.30500 0.00000
  O2  O  0.69500 0.69500 0.00000
  O3  O  0.19500 0.80500 0.50000
  O4  O  0.80500 0.19500 0.50000

